*
* Copyright 2016 by Artisan Components, Inc.
* This file has been provided pursuant to a License Agreement
* containing restrictions on its use.  This file contains valuable
* trade secrets and proprietary information of Artisan Components,
* Inc. and is protected by law.
*
** generated by bif2cdl v3.0f **
** Generator version 2001Q4V0 **
*
** begin lvs.header
** end lvs.header
*.SCALE meter
*.BIPOLAR
*.DIOAREA
*.DIOPERI
.GLOBAL VSS VDD
*
****
.SUBCKT RA1SHCCMWG BL BL_ MWLB MWLT MWPB MWPT
** RA1SHCCMWG: 8 flat devices **
m1 BL MWPB CORED VSS N L=0.235U W=0.21U
m2 BL_ MWPB CORED_ VSS N L=0.235U W=0.21U
m3 BL MWPT CORED VSS N L=0.235U W=0.21U
m4 BL_ MWPT CORED_ VSS N L=0.235U W=0.21U
m5 VSS VSS CORED VSS N L=0.18U W=0.42U
m6 VSS VSS CORED_ VSS N L=0.18U W=0.42U
m7 VSS VSS CORED VSS N L=0.18U W=0.42U
m8 VSS VSS CORED_ VSS N L=0.18U W=0.42U
.ENDS RA1SHCCMWG
****
.SUBCKT RA1SHCCG BL BL_ WL WP
** RA1SHCCG: 6 flat devices **
m1 BL WP CORED VSS N L=0.235U W=0.21U
m2 BL_ WP CORED_ VSS N L=0.235U W=0.21U
m3 CORED_ CORED VDD VDD P L=0.18U W=0.22U
m4 CORED_ CORED VSS VSS N L=0.18U W=0.42U
m5 CORED CORED_ VDD VDD P L=0.18U W=0.22U
m6 CORED CORED_ VSS VSS N L=0.18U W=0.42U
.ENDS RA1SHCCG
****
.SUBCKT RA1SHLEFT_CAP A0 A0_ GTP GTP_0 GTP_1 OE_ STUBDR STUBDR_ STUBDW STUBDW_
+  WE WL WL_0 WL_1 WL_2 WL_3 WL_4 WL_5 WL_6 WL_7 WL_8 WL_9 WL_10 WL_11 WL_12
+  WL_13 WL_14 WL_15 WL_16 WL_17 WL_18 WL_19 WL_20 WL_21 WL_22 WL_23 WL_24
+  WL_25 WL_26 WL_27 WL_28 WL_29 WL_30 YP0_0 YP0_1 YP0_2 YP0_3 YP1_0 YP1_1
+  YP1_2 YP1_3
** RA1SHLEFT_CAP: 206 flat devices **
XI0_10 VDD VDD WL_23 WL_23 RA1SHCCG
XI0_11 VDD VDD WL_22 WL_22 RA1SHCCG
XI0_12 VDD VDD WL_21 WL_21 RA1SHCCG
XI0_13 VDD VDD WL_20 WL_20 RA1SHCCG
XI0_14 VDD VDD WL_19 WL_19 RA1SHCCG
XI0_15 VDD VDD WL_18 WL_18 RA1SHCCG
XI0_16 VDD VDD WL_17 WL_17 RA1SHCCG
XI0_17 VDD VDD WL_16 WL_16 RA1SHCCG
XI0_18 VDD VDD WL_15 WL_15 RA1SHCCG
XI0_19 VDD VDD WL_14 WL_14 RA1SHCCG
XI0_20 VDD VDD WL_13 WL_13 RA1SHCCG
XI0_21 VDD VDD WL_12 WL_12 RA1SHCCG
XI0_22 VDD VDD WL_11 WL_11 RA1SHCCG
XI0_23 VDD VDD WL_10 WL_10 RA1SHCCG
XI0_24 VDD VDD WL_9 WL_9 RA1SHCCG
XI0_25 VDD VDD WL_8 WL_8 RA1SHCCG
XI0_26 VDD VDD WL_7 WL_7 RA1SHCCG
XI0_27 VDD VDD WL_6 WL_6 RA1SHCCG
XI0_28 VDD VDD WL_5 WL_5 RA1SHCCG
XI0_29 VDD VDD WL_4 WL_4 RA1SHCCG
XI0_3 VDD VDD WL_30 WL_30 RA1SHCCG
XI0_30 VDD VDD WL_3 WL_3 RA1SHCCG
XI0_31 VDD VDD WL_2 WL_2 RA1SHCCG
XI0_32 VDD VDD WL_1 WL_1 RA1SHCCG
XI0_33 VDD VDD WL_0 WL_0 RA1SHCCG
XI0_34 VDD VDD WL WL RA1SHCCG
XI0_35 VDD VDD VSS VSS VSS VSS RA1SHCCMWG
XI0_37 VDD VDD VSS VSS RA1SHCCG
XI0_4 VDD VDD WL_29 WL_29 RA1SHCCG
XI0_5 VDD VDD WL_28 WL_28 RA1SHCCG
XI0_6 VDD VDD WL_27 WL_27 RA1SHCCG
XI0_7 VDD VDD WL_26 WL_26 RA1SHCCG
XI0_8 VDD VDD WL_25 WL_25 RA1SHCCG
XI0_9 VDD VDD WL_24 WL_24 RA1SHCCG
.ENDS RA1SHLEFT_CAP
****
.SUBCKT RA1SHFLIO OE_ TCLK WE
** RA1SHFLIO: 3 flat devices **
d1 VSS TCLK DN 0.36P 2.4U
d2 VSS OE_ DN 0.36P 2.4U
d3 VSS WE DN 0.36P 2.4U
.ENDS RA1SHFLIO
****
.SUBCKT RA1SHFLSA GTP
** RA1SHFLSA: 1 flat devices **
d1 VSS GTP DN 0.36P 2.4U
.ENDS RA1SHFLSA
****
.SUBCKT RA1SHIO8 D DI_ DPN DPU DW DW_ D_ GTP OE_ Q QI SP UTIDMX WE
** RA1SHIO8: 59 flat devices **
d47 VSS D DN 0.36P 2.4U
d58 VSS D DN 0.36P 2.4U
d59 VSS Q DN 0.36P 2.4U
m1 QI DPU VSS VSS N L=0.18U W=3.46U
m10 QPD OEI_ VSS VSS N L=0.18U W=0.72U
m11 QIL QI VDD VDD P L=0.18U W=1.3U
m12 QIL QI VSS VSS N L=0.18U W=0.72U
m13 SPN SP VDD VDD P L=0.18U W=0.46U
m14 SPN SP VSS VSS N L=0.18U W=0.3U
m15 DWPD GTPND DWI VSS N L=0.18U W=0.62U
m16 DWPD DW VDD VDD P L=0.28U W=0.24U
m17 DWPD DW VSS VSS N L=0.54U W=0.24U
m18 DWPD GTP DWI VDD P L=0.18U W=0.78U
m19 DW_PU GTPND DNWI VSS N L=0.18U W=0.62U
m2 QI DPN VDD VDD P L=0.18U W=9.38U
m20 DW_PU GTP DNWI VDD P L=0.18U W=0.78U
m21 GTPND GTP VDD VDD P L=0.18U W=0.44U
m22 GTPND GTP VSS VSS N L=0.18U W=0.3U
m23 DI DI_ VDD VDD P L=0.18U W=1.6U
m24 DI DI_ VSS VSS N L=0.18U W=0.76U
m25 DB DI VDD VDD P L=0.18U W=1.08U
m26 DB DI VSS VSS N L=0.18U W=0.52U
m27 WEI N53 VDD VDD P L=0.18U W=1.3U
m28 WEI N53 VSS VSS N L=0.18U W=0.74U
m29 OEI OEI_ VDD VDD P L=0.18U W=1.26U
m3 Q QPU VDD VDD P L=0.18U W=10.8U
m30 OEI OEI_ VSS VSS N L=0.18U W=0.64U
m31 QI SP N77 VDD P L=0.18U W=2U
m32 N77 QIL VDD VDD P L=0.18U W=2U
m33 QI SPN N76 VSS N L=0.18U W=2U
m34 N76 QIL VSS VSS N L=0.18U W=2U
m35 N36 OE_ VDD VDD P L=0.18U W=0.84U
m36 N36 OE_ VSS VSS N L=0.18U W=0.42U
m37 N53 WE VDD VDD P L=0.18U W=0.5U
m38 N53 WE VSS VSS N L=0.18U W=0.24U
m39 DWI WEI VDD VDD P L=0.18U W=1.54U
m4 Q QPD VSS VSS N L=0.18U W=7.2U
m40 N78 WEI VSS VSS N L=0.18U W=1.34U
m41 DWI DI VDD VDD P L=0.18U W=1.54U
m42 DWI DI N78 VSS N L=0.18U W=1.34U
m43 DNWI WEI VDD VDD P L=0.18U W=1.54U
m44 N79 WEI VSS VSS N L=0.18U W=1.34U
m45 DNWI DB VDD VDD P L=0.18U W=1.54U
m46 DNWI DB N79 VSS N L=0.18U W=1.34U
m48 D_ D VDD VDD P L=0.18U W=0.62U
m49 D_ D VSS VSS N L=0.18U W=0.3U
m5 OEI_ N36 VDD VDD P L=0.18U W=2.3U
m50 QPU OEI_ QI VDD P L=0.18U W=0.34U
m51 QPD OEI QI VSS N L=0.18U W=0.66U
m52 DW DWPD VDD VDD P L=0.18U W=5.18U
m53 DW DWPD VSS VSS N L=0.18U W=2.48U
m54 DW_PU DW_ VDD VDD P L=0.28U W=0.24U
m55 DW_PU DW_ VSS VSS N L=0.54U W=0.24U
m56 DW_ DW_PU VDD VDD P L=0.18U W=5.18U
m57 DW_ DW_PU VSS VSS N L=0.18U W=2.48U
m6 OEI_ N36 VSS VSS N L=0.18U W=1.14U
m7 QPD OEI_ QI VDD P L=0.18U W=7.12U
m8 QPU OEI QI VSS N L=0.18U W=3.24U
m9 QPU OEI VDD VDD P L=0.18U W=1.78U
.ENDS RA1SHIO8
****
.SUBCKT RA1SHIOX D DI_ DPN DPU DW DW_ GTP IO IO_1 OE_ Q QI SP WE
** RA1SHIOX: 59 flat devices **
XI0_0 D DI_ DPN DPU DW DW_ DI_ GTP OE_ Q QI SP VSS WE RA1SHIO8
.ENDS RA1SHIOX
****
.SUBCKT RA1SHCD A0 A0_ BL0 BL0_ BL1 BL1_ DR DRSA DR_ DW DWSA DW_ G0 G1 GTP
+  STUBDR STUBDR_ STUBDW STUBDW_ YP0_0 YP0_1 YP0_2 YP0_3 YP1_0 YP1_1 YP1_2
+  YP1_3
** RA1SHCD: 43 flat devices **
m1 BL0_ CS0 DR_ VDD P L=0.2U W=3.51U
m10 BL1_ BL1PD VSS VSS N L=0.18U W=6.28U
m11 BL1_PD CS1 DW_ VDD P L=0.18U W=1.48U
m12 BL1_PD CS1 VSS VSS N L=0.18U W=0.74U
m13 BL1_ CS1 DR_ VDD P L=0.2U W=3.51U
m14 BL1PD CS1 DW VDD P L=0.18U W=1.48U
m15 BL1PD CS1 VSS VSS N L=0.18U W=0.74U
m16 BL1 BL1_PD VSS VSS N L=0.18U W=6.28U
m17 BL0_ YI VDD VDD P L=0.18U W=10.86U
m18 BL0 YI VDD VDD P L=0.18U W=10.86U
m19 BL0 YI BL0_ VDD P L=0.18U W=10.86U
m2 BL0 BL0PD VSS VSS N L=0.18U W=6.28U
m20 BL1 YI VDD VDD P L=0.18U W=10.86U
m21 BL1_ YI VDD VDD P L=0.18U W=10.86U
m22 BL1_ YI BL1 VDD P L=0.18U W=10.86U
m23 CS0 A0_ VDD VDD P L=0.18U W=1.82U
m24 N65 A0_ VSS VSS N L=0.18U W=1.8U
m25 CS0 YI VDD VDD P L=0.18U W=1.82U
m26 CS0 YI N65 VSS N L=0.18U W=1.8U
m27 CS1 A0 VDD VDD P L=0.18U W=1.82U
m28 N66 A0 VSS VSS N L=0.18U W=1.8U
m29 CS1 YI VDD VDD P L=0.18U W=1.82U
m3 BL0_PD CS0 DW VDD P L=0.18U W=1.48U
m30 CS1 YI N66 VSS N L=0.18U W=1.8U
m31 YCDSEL_ G0 VDD VDD P L=0.18U W=0.8U
m32 N67 G0 VSS VSS N L=0.18U W=0.74U
m33 YCDSEL_ G1 VDD VDD P L=0.18U W=0.8U
m34 YCDSEL_ G1 N67 VSS N L=0.18U W=0.74U
m35 YCDSEL YCDSEL_ VDD VDD P L=0.18U W=0.52U
m36 YCDSEL YCDSEL_ VSS VSS N L=0.18U W=0.24U
m37 N37 YCDSEL_ GTP VDD P L=0.18U W=1.2U
m38 N37 YCDSEL_ VSS VSS N L=0.18U W=1U
m39 YI WL1_EN_ VDD VDD P L=0.18U W=12.4U
m4 BL0_PD CS0 VSS VSS N L=0.18U W=0.74U
m40 YI WL1_EN_ VSS VSS N L=0.18U W=7.24U
m41 WL1_EN_ N37 VDD VDD P L=0.18U W=6.06U
m42 WL1_EN_ N37 VSS VSS N L=0.18U W=3.8U
m43 N37 YCDSEL GTP VSS N L=0.18U W=0.88U
m5 BL0 CS0 DR VDD P L=0.2U W=3.55U
m6 BL0PD CS0 DW_ VDD P L=0.18U W=1.48U
m7 BL0PD CS0 VSS VSS N L=0.18U W=0.74U
m8 BL0_ BL0_PD VSS VSS N L=0.18U W=6.28U
m9 BL1 CS1 DR VDD P L=0.2U W=3.55U
.ENDS RA1SHCD
****
.SUBCKT RA1SHCDX A0 A0_ BL0 BL0_ BL1 BL1_ DRSA DWSA G0 G1 GTP STUBDR STUBDR_
+  STUBDW STUBDW_ YP0_0 YP0_1 YP0_2 YP0_3 YP1_0 YP1_1 YP1_2 YP1_3
** RA1SHCDX: 43 flat devices **
XI0_0 A0 A0_ BL0 BL0_ BL1 BL1_ STUBDR DRSA STUBDR_ STUBDW DWSA STUBDW_ G0 G1
+  GTP STUBDR STUBDR_ STUBDW STUBDW_ YP0_0 YP0_1 YP0_2 YP0_3 YP1_0 YP1_1 YP1_2
+  YP1_3 RA1SHCD
.ENDS RA1SHCDX
****
.SUBCKT RA1SHMUX_CD_ODD A0 A0_ BL0 BL0_ BL0_0 BL0_1 BL0_2 BL0_3 BL0_4 BL0_5
+  BL0_6 BL0__0 BL0__1 BL0__2 BL0__3 BL0__4 BL0__5 BL0__6 BL1 BL1_ BL1_0 BL1_1
+  BL1_2 BL1_3 BL1_4 BL1_5 BL1_6 BL1__0 BL1__1 BL1__2 BL1__3 BL1__4 BL1__5
+  BL1__6 DRSA DRSA_0 DRSA_1 DRSA_2 DRSA_3 DRSA_4 DRSA_5 DRSA_6 DWSA DWSA_0
+  DWSA_2 DWSA_3 DWSA_4 DWSA_5 DWSA_6 GTP STUBDR_0 STUBDR__0 STUBDW STUBDW_0
+  STUBDW__0 YP0_0 YP0_1 YP0_2 YP0_3 YP1_0 YP1_1 YP1_2 YP1_3
** RA1SHMUX_CD_ODD: 344 flat devices **
XI0_0 A0 A0_ BL0_6 BL0__6 BL1_6 BL1__6 DRSA_1 DRSA_6 DRSA_0 STUBDW DWSA_6
+  DWSA_0 VDD YP1_3 GTP STUBDR_0 STUBDR__0 STUBDW_0 STUBDW__0 YP0_0 YP0_1
+  YP0_2 YP0_3 YP1_0 YP1_1 YP1_2 YP1_3 RA1SHCD
XI1_0 A0 A0_ BL0_5 BL0__5 BL1_5 BL1__5 DRSA_5 DWSA_5 VDD YP1_2 GTP DRSA_1
+  DRSA_0 STUBDW DWSA_0 YP0_0 YP0_1 YP0_2 YP0_3 YP1_0 YP1_1 YP1_2 YP1_3
+  RA1SHCDX
XI2_0 A0 A0_ BL0_4 BL0__4 BL1_4 BL1__4 DRSA_4 DWSA_4 VDD YP1_1 GTP DRSA_1
+  DRSA_0 STUBDW DWSA_0 YP0_0 YP0_1 YP0_2 YP0_3 YP1_0 YP1_1 YP1_2 YP1_3
+  RA1SHCDX
XI3_0 A0 A0_ BL0_3 BL0__3 BL1_3 BL1__3 DRSA_3 DWSA_3 VDD YP1_0 GTP DRSA_1
+  DRSA_0 STUBDW DWSA_0 YP0_0 YP0_1 YP0_2 YP0_3 YP1_0 YP1_1 YP1_2 YP1_3
+  RA1SHCDX
XI4_0 A0 A0_ BL0_2 BL0__2 BL1_2 BL1__2 DRSA_2 DWSA_2 YP0_3 VDD GTP DRSA_1
+  DRSA_0 STUBDW DWSA_0 YP0_0 YP0_1 YP0_2 YP0_3 YP1_0 YP1_1 YP1_2 YP1_3
+  RA1SHCDX
XI5_0 A0 A0_ BL0_1 BL0__1 BL1_1 BL1__1 DRSA_1 STUBDW YP0_2 VDD GTP DRSA_1
+  DRSA_0 STUBDW DWSA_0 YP0_0 YP0_1 YP0_2 YP0_3 YP1_0 YP1_1 YP1_2 YP1_3
+  RA1SHCDX
XI6_0 A0 A0_ BL0_0 BL0__0 BL1_0 BL1__0 DRSA_0 DWSA_0 YP0_1 VDD GTP DRSA_1
+  DRSA_0 STUBDW DWSA_0 YP0_0 YP0_1 YP0_2 YP0_3 YP1_0 YP1_1 YP1_2 YP1_3
+  RA1SHCDX
XI7_0 A0 A0_ BL0 BL0_ BL1 BL1_ DRSA DWSA YP0_0 VDD GTP DRSA_1 DRSA_0 STUBDW
+  DWSA_0 YP0_0 YP0_1 YP0_2 YP0_3 YP1_0 YP1_1 YP1_2 YP1_3 RA1SHCDX
.ENDS RA1SHMUX_CD_ODD
****
.SUBCKT RA1SHSA8 DPN DPU DR DR_ DW DW_ GTP SP
** RA1SHSA8: 41 flat devices **
m1 N22 SRCD VSS VSS N L=0.18U W=1.58U
m10 DPN SDN VDD VDD P L=0.18U W=1.7U
m11 DPN SDN VSS VSS N L=0.18U W=3.1U
m12 SP SPN VDD VDD P L=0.18U W=2.12U
m13 SP SPN VSS VSS N L=0.18U W=1.38U
m14 GTPN GTP VDD VDD P L=0.18U W=0.82U
m15 GTPN GTP VSS VSS N L=0.18U W=0.34U
m16 ND1 GTPN VDD VDD P L=0.18U W=0.64U
m17 ND1 GTPN VSS VSS N L=0.18U W=0.36U
m18 ND2 ND1 VDD VDD P L=0.18U W=1.82U
m19 ND2 ND1 VSS VSS N L=0.18U W=0.76U
m2 SD SP DR VDD P L=0.19U W=3.1U
m20 N40 DRP VSS VSS N L=0.18U W=1.3U
m21 SPN GTPN N40 VSS N L=0.18U W=0.88U
m22 SPN DRP VDD VDD P L=0.18U W=1.2U
m23 SPN GTPN VDD VDD P L=0.18U W=0.72U
m24 DRP ND2 VDD VDD P L=0.18U W=3.28U
m25 DRP ND2 VSS VSS N L=0.18U W=2.14U
m26 DR_ DRP VDD VDD P L=0.18U W=3.9U
m27 DR DRP VDD VDD P L=0.18U W=3.9U
m28 DR DRP DR_ VDD P L=0.18U W=5U
m29 SD_ SD SRC VSS N L=0.26U W=3.9U
m3 SD_ SP DR_ VDD P L=0.19U W=3.1U
m30 SD SD_ SRC VSS N L=0.26U W=3.9U
m31 SD_ SD SRC VSS N L=0.26U W=3.15U
m32 SD SD_ SRC VSS N L=0.26U W=3.15U
m33 SRC GTPN N22 VSS N L=0.18U W=1.74U
m34 SRCD SRCPU VDD VDD P L=0.18U W=0.68U
m35 SRCD SRCPU VSS VSS N L=0.18U W=0.48U
m36 SRCPU DRP VDD VDD P L=0.18U W=1.36U
m37 SRCPU DRP VSS VSS N L=0.18U W=0.48U
m38 VDD SRCPU SRC VSS N L=0.18U W=1.76U
m39 SD SRCD SD_ VDD P L=0.18U W=1.24U
m4 SD_ SD VDD VDD P L=0.18U W=1.24U
m40 SRC GTPN N52 VSS N L=0.18U W=1.74U
m41 N52 SRCD VSS VSS N L=0.18U W=1.58U
m5 SD SD_ VDD VDD P L=0.18U W=1.24U
m6 SDN SD VDD VDD P L=0.18U W=1.8U
m7 SDN SD VSS VSS N L=0.18U W=0.62U
m8 DPU SD_ VDD VDD P L=0.18U W=1.8U
m9 DPU SD_ VSS VSS N L=0.18U W=0.62U
.ENDS RA1SHSA8
****
.SUBCKT RA1SHCCP BL BL_ WL WP
** RA1SHCCP: 6 flat devices **
m1 BL WP CORED VSS N L=0.235U W=0.21U
m2 BL_ WP CORED_ VSS N L=0.235U W=0.21U
m3 CORED_ CORED VDD VDD P L=0.18U W=0.22U
m4 CORED_ CORED VSS VSS N L=0.18U W=0.42U
m5 CORED CORED_ VDD VDD P L=0.18U W=0.22U
m6 CORED CORED_ VSS VSS N L=0.18U W=0.42U
.ENDS RA1SHCCP
****
.SUBCKT RA1SHBIT_MUX_1 BL BL_ BL_0 BL_1 BL_2 BL_3 BL_4 BL_5 BL_6 BL_7 BL_8
+  BL_9 BL_10 BL_11 BL_12 BL_13 BL_14 BL__0 BL__1 BL__2 BL__3 BL__4 BL__5
+  BL__6 BL__7 BL__8 BL__9 BL__10 BL__11 BL__12 BL__13 BL__14 WL WP
** RA1SHBIT_MUX_1: 96 flat devices **
XI0_0 BL_14 BL__14 WL WP RA1SHCCG
XI10_0 BL_4 BL__4 WL WP RA1SHCCP
XI11_0 BL_3 BL__3 WL WP RA1SHCCG
XI12_0 BL_2 BL__2 WL WP RA1SHCCG
XI13_0 BL_1 BL__1 WL WP RA1SHCCP
XI14_0 BL_0 BL__0 WL WP RA1SHCCP
XI15_0 BL BL_ WL WP RA1SHCCG
XI1_0 BL_13 BL__13 WL WP RA1SHCCP
XI2_0 BL_12 BL__12 WL WP RA1SHCCP
XI3_0 BL_11 BL__11 WL WP RA1SHCCG
XI4_0 BL_10 BL__10 WL WP RA1SHCCG
XI5_0 BL_9 BL__9 WL WP RA1SHCCP
XI6_0 BL_8 BL__8 WL WP RA1SHCCP
XI7_0 BL_7 BL__7 WL WP RA1SHCCG
XI8_0 BL_6 BL__6 WL WP RA1SHCCG
XI9_0 BL_5 BL__5 WL WP RA1SHCCP
.ENDS RA1SHBIT_MUX_1
****
.SUBCKT RA1SHBIT_MUX_0 BL BL_ BL_0 BL_1 BL_2 BL_3 BL_4 BL_5 BL_6 BL_7 BL_8
+  BL_9 BL_10 BL_11 BL_12 BL_13 BL_14 BL__0 BL__1 BL__2 BL__3 BL__4 BL__5
+  BL__6 BL__7 BL__8 BL__9 BL__10 BL__11 BL__12 BL__13 BL__14 WL WP
** RA1SHBIT_MUX_0: 96 flat devices **
XI0_0 BL_14 BL__14 WL WP RA1SHCCG
XI10_0 BL_4 BL__4 WL WP RA1SHCCP
XI11_0 BL_3 BL__3 WL WP RA1SHCCG
XI12_0 BL_2 BL__2 WL WP RA1SHCCG
XI13_0 BL_1 BL__1 WL WP RA1SHCCP
XI14_0 BL_0 BL__0 WL WP RA1SHCCP
XI15_0 BL BL_ WL WP RA1SHCCG
XI1_0 BL_13 BL__13 WL WP RA1SHCCP
XI2_0 BL_12 BL__12 WL WP RA1SHCCP
XI3_0 BL_11 BL__11 WL WP RA1SHCCG
XI4_0 BL_10 BL__10 WL WP RA1SHCCG
XI5_0 BL_9 BL__9 WL WP RA1SHCCP
XI6_0 BL_8 BL__8 WL WP RA1SHCCP
XI7_0 BL_7 BL__7 WL WP RA1SHCCG
XI8_0 BL_6 BL__6 WL WP RA1SHCCG
XI9_0 BL_5 BL__5 WL WP RA1SHCCP
.ENDS RA1SHBIT_MUX_0
****
.SUBCKT RA1SHBIT_COL BL BL_0 BL_1 BL_2 BL_3 BL_4 BL_5 BL_6 BL_7 BL_8 BL_9
+  BL_10 BL_11 BL_12 BL_13 BL_14 BL_15 BL_16 BL_17 BL_18 BL_19 BL_20 BL_21
+  BL_22 BL_23 BL_24 BL_25 BL_26 BL_27 BL_28 BL_29 BL_30 WL WL_0 WL_1 WL_2
+  WL_3 WL_4 WL_5 WL_6 WL_7 WL_8 WL_9 WL_10 WL_11 WL_12 WL_13 WL_14 WL_15
+  WL_16 WL_17 WL_18 WL_19 WL_20 WL_21 WL_22 WL_23 WL_24 WL_25 WL_26 WL_27
+  WL_28 WL_29 WL_30 WP WP_0 WP_1 WP_2 WP_3 WP_4 WP_5 WP_6 WP_7 WP_8 WP_9
+  WP_10 WP_11 WP_12 WP_13 WP_14 WP_15 WP_16 WP_17 WP_18 WP_19 WP_20 WP_21
+  WP_22 WP_23 WP_24 WP_25 WP_26 WP_27 WP_28 WP_29 WP_30
** RA1SHBIT_COL: 3072 flat devices **
XI0_0 BL_0 BL BL_2 BL_4 BL_6 BL_8 BL_10 BL_12 BL_14 BL_16 BL_18 BL_20 BL_22
+  BL_24 BL_26 BL_28 BL_30 BL_1 BL_3 BL_5 BL_7 BL_9 BL_11 BL_13 BL_15 BL_17
+  BL_19 BL_21 BL_23 BL_25 BL_27 BL_29 WL_30 WP_30 RA1SHBIT_MUX_0
XI0_1 BL BL_0 BL_1 BL_3 BL_5 BL_7 BL_9 BL_11 BL_13 BL_15 BL_17 BL_19 BL_21
+  BL_23 BL_25 BL_27 BL_29 BL_2 BL_4 BL_6 BL_8 BL_10 BL_12 BL_14 BL_16 BL_18
+  BL_20 BL_22 BL_24 BL_26 BL_28 BL_30 WL_29 WP_29 RA1SHBIT_MUX_1
XI0_10 BL_0 BL BL_2 BL_4 BL_6 BL_8 BL_10 BL_12 BL_14 BL_16 BL_18 BL_20 BL_22
+  BL_24 BL_26 BL_28 BL_30 BL_1 BL_3 BL_5 BL_7 BL_9 BL_11 BL_13 BL_15 BL_17
+  BL_19 BL_21 BL_23 BL_25 BL_27 BL_29 WL_20 WP_20 RA1SHBIT_MUX_0
XI0_11 BL BL_0 BL_1 BL_3 BL_5 BL_7 BL_9 BL_11 BL_13 BL_15 BL_17 BL_19 BL_21
+  BL_23 BL_25 BL_27 BL_29 BL_2 BL_4 BL_6 BL_8 BL_10 BL_12 BL_14 BL_16 BL_18
+  BL_20 BL_22 BL_24 BL_26 BL_28 BL_30 WL_19 WP_19 RA1SHBIT_MUX_1
XI0_12 BL_0 BL BL_2 BL_4 BL_6 BL_8 BL_10 BL_12 BL_14 BL_16 BL_18 BL_20 BL_22
+  BL_24 BL_26 BL_28 BL_30 BL_1 BL_3 BL_5 BL_7 BL_9 BL_11 BL_13 BL_15 BL_17
+  BL_19 BL_21 BL_23 BL_25 BL_27 BL_29 WL_18 WP_18 RA1SHBIT_MUX_0
XI0_13 BL BL_0 BL_1 BL_3 BL_5 BL_7 BL_9 BL_11 BL_13 BL_15 BL_17 BL_19 BL_21
+  BL_23 BL_25 BL_27 BL_29 BL_2 BL_4 BL_6 BL_8 BL_10 BL_12 BL_14 BL_16 BL_18
+  BL_20 BL_22 BL_24 BL_26 BL_28 BL_30 WL_17 WP_17 RA1SHBIT_MUX_1
XI0_14 BL_0 BL BL_2 BL_4 BL_6 BL_8 BL_10 BL_12 BL_14 BL_16 BL_18 BL_20 BL_22
+  BL_24 BL_26 BL_28 BL_30 BL_1 BL_3 BL_5 BL_7 BL_9 BL_11 BL_13 BL_15 BL_17
+  BL_19 BL_21 BL_23 BL_25 BL_27 BL_29 WL_16 WP_16 RA1SHBIT_MUX_0
XI0_15 BL BL_0 BL_1 BL_3 BL_5 BL_7 BL_9 BL_11 BL_13 BL_15 BL_17 BL_19 BL_21
+  BL_23 BL_25 BL_27 BL_29 BL_2 BL_4 BL_6 BL_8 BL_10 BL_12 BL_14 BL_16 BL_18
+  BL_20 BL_22 BL_24 BL_26 BL_28 BL_30 WL_15 WP_15 RA1SHBIT_MUX_1
XI0_16 BL_0 BL BL_2 BL_4 BL_6 BL_8 BL_10 BL_12 BL_14 BL_16 BL_18 BL_20 BL_22
+  BL_24 BL_26 BL_28 BL_30 BL_1 BL_3 BL_5 BL_7 BL_9 BL_11 BL_13 BL_15 BL_17
+  BL_19 BL_21 BL_23 BL_25 BL_27 BL_29 WL_14 WP_14 RA1SHBIT_MUX_0
XI0_17 BL BL_0 BL_1 BL_3 BL_5 BL_7 BL_9 BL_11 BL_13 BL_15 BL_17 BL_19 BL_21
+  BL_23 BL_25 BL_27 BL_29 BL_2 BL_4 BL_6 BL_8 BL_10 BL_12 BL_14 BL_16 BL_18
+  BL_20 BL_22 BL_24 BL_26 BL_28 BL_30 WL_13 WP_13 RA1SHBIT_MUX_1
XI0_18 BL_0 BL BL_2 BL_4 BL_6 BL_8 BL_10 BL_12 BL_14 BL_16 BL_18 BL_20 BL_22
+  BL_24 BL_26 BL_28 BL_30 BL_1 BL_3 BL_5 BL_7 BL_9 BL_11 BL_13 BL_15 BL_17
+  BL_19 BL_21 BL_23 BL_25 BL_27 BL_29 WL_12 WP_12 RA1SHBIT_MUX_0
XI0_19 BL BL_0 BL_1 BL_3 BL_5 BL_7 BL_9 BL_11 BL_13 BL_15 BL_17 BL_19 BL_21
+  BL_23 BL_25 BL_27 BL_29 BL_2 BL_4 BL_6 BL_8 BL_10 BL_12 BL_14 BL_16 BL_18
+  BL_20 BL_22 BL_24 BL_26 BL_28 BL_30 WL_11 WP_11 RA1SHBIT_MUX_1
XI0_2 BL_0 BL BL_2 BL_4 BL_6 BL_8 BL_10 BL_12 BL_14 BL_16 BL_18 BL_20 BL_22
+  BL_24 BL_26 BL_28 BL_30 BL_1 BL_3 BL_5 BL_7 BL_9 BL_11 BL_13 BL_15 BL_17
+  BL_19 BL_21 BL_23 BL_25 BL_27 BL_29 WL_28 WP_28 RA1SHBIT_MUX_0
XI0_20 BL_0 BL BL_2 BL_4 BL_6 BL_8 BL_10 BL_12 BL_14 BL_16 BL_18 BL_20 BL_22
+  BL_24 BL_26 BL_28 BL_30 BL_1 BL_3 BL_5 BL_7 BL_9 BL_11 BL_13 BL_15 BL_17
+  BL_19 BL_21 BL_23 BL_25 BL_27 BL_29 WL_10 WP_10 RA1SHBIT_MUX_0
XI0_21 BL BL_0 BL_1 BL_3 BL_5 BL_7 BL_9 BL_11 BL_13 BL_15 BL_17 BL_19 BL_21
+  BL_23 BL_25 BL_27 BL_29 BL_2 BL_4 BL_6 BL_8 BL_10 BL_12 BL_14 BL_16 BL_18
+  BL_20 BL_22 BL_24 BL_26 BL_28 BL_30 WL_9 WP_9 RA1SHBIT_MUX_1
XI0_22 BL_0 BL BL_2 BL_4 BL_6 BL_8 BL_10 BL_12 BL_14 BL_16 BL_18 BL_20 BL_22
+  BL_24 BL_26 BL_28 BL_30 BL_1 BL_3 BL_5 BL_7 BL_9 BL_11 BL_13 BL_15 BL_17
+  BL_19 BL_21 BL_23 BL_25 BL_27 BL_29 WL_8 WP_8 RA1SHBIT_MUX_0
XI0_23 BL BL_0 BL_1 BL_3 BL_5 BL_7 BL_9 BL_11 BL_13 BL_15 BL_17 BL_19 BL_21
+  BL_23 BL_25 BL_27 BL_29 BL_2 BL_4 BL_6 BL_8 BL_10 BL_12 BL_14 BL_16 BL_18
+  BL_20 BL_22 BL_24 BL_26 BL_28 BL_30 WL_7 WP_7 RA1SHBIT_MUX_1
XI0_24 BL_0 BL BL_2 BL_4 BL_6 BL_8 BL_10 BL_12 BL_14 BL_16 BL_18 BL_20 BL_22
+  BL_24 BL_26 BL_28 BL_30 BL_1 BL_3 BL_5 BL_7 BL_9 BL_11 BL_13 BL_15 BL_17
+  BL_19 BL_21 BL_23 BL_25 BL_27 BL_29 WL_6 WP_6 RA1SHBIT_MUX_0
XI0_25 BL BL_0 BL_1 BL_3 BL_5 BL_7 BL_9 BL_11 BL_13 BL_15 BL_17 BL_19 BL_21
+  BL_23 BL_25 BL_27 BL_29 BL_2 BL_4 BL_6 BL_8 BL_10 BL_12 BL_14 BL_16 BL_18
+  BL_20 BL_22 BL_24 BL_26 BL_28 BL_30 WL_5 WP_5 RA1SHBIT_MUX_1
XI0_26 BL_0 BL BL_2 BL_4 BL_6 BL_8 BL_10 BL_12 BL_14 BL_16 BL_18 BL_20 BL_22
+  BL_24 BL_26 BL_28 BL_30 BL_1 BL_3 BL_5 BL_7 BL_9 BL_11 BL_13 BL_15 BL_17
+  BL_19 BL_21 BL_23 BL_25 BL_27 BL_29 WL_4 WP_4 RA1SHBIT_MUX_0
XI0_27 BL BL_0 BL_1 BL_3 BL_5 BL_7 BL_9 BL_11 BL_13 BL_15 BL_17 BL_19 BL_21
+  BL_23 BL_25 BL_27 BL_29 BL_2 BL_4 BL_6 BL_8 BL_10 BL_12 BL_14 BL_16 BL_18
+  BL_20 BL_22 BL_24 BL_26 BL_28 BL_30 WL_3 WP_3 RA1SHBIT_MUX_1
XI0_28 BL_0 BL BL_2 BL_4 BL_6 BL_8 BL_10 BL_12 BL_14 BL_16 BL_18 BL_20 BL_22
+  BL_24 BL_26 BL_28 BL_30 BL_1 BL_3 BL_5 BL_7 BL_9 BL_11 BL_13 BL_15 BL_17
+  BL_19 BL_21 BL_23 BL_25 BL_27 BL_29 WL_2 WP_2 RA1SHBIT_MUX_0
XI0_29 BL BL_0 BL_1 BL_3 BL_5 BL_7 BL_9 BL_11 BL_13 BL_15 BL_17 BL_19 BL_21
+  BL_23 BL_25 BL_27 BL_29 BL_2 BL_4 BL_6 BL_8 BL_10 BL_12 BL_14 BL_16 BL_18
+  BL_20 BL_22 BL_24 BL_26 BL_28 BL_30 WL_1 WP_1 RA1SHBIT_MUX_1
XI0_3 BL BL_0 BL_1 BL_3 BL_5 BL_7 BL_9 BL_11 BL_13 BL_15 BL_17 BL_19 BL_21
+  BL_23 BL_25 BL_27 BL_29 BL_2 BL_4 BL_6 BL_8 BL_10 BL_12 BL_14 BL_16 BL_18
+  BL_20 BL_22 BL_24 BL_26 BL_28 BL_30 WL_27 WP_27 RA1SHBIT_MUX_1
XI0_30 BL_0 BL BL_2 BL_4 BL_6 BL_8 BL_10 BL_12 BL_14 BL_16 BL_18 BL_20 BL_22
+  BL_24 BL_26 BL_28 BL_30 BL_1 BL_3 BL_5 BL_7 BL_9 BL_11 BL_13 BL_15 BL_17
+  BL_19 BL_21 BL_23 BL_25 BL_27 BL_29 WL_0 WP_0 RA1SHBIT_MUX_0
XI0_31 BL BL_0 BL_1 BL_3 BL_5 BL_7 BL_9 BL_11 BL_13 BL_15 BL_17 BL_19 BL_21
+  BL_23 BL_25 BL_27 BL_29 BL_2 BL_4 BL_6 BL_8 BL_10 BL_12 BL_14 BL_16 BL_18
+  BL_20 BL_22 BL_24 BL_26 BL_28 BL_30 WL WP RA1SHBIT_MUX_1
XI0_4 BL_0 BL BL_2 BL_4 BL_6 BL_8 BL_10 BL_12 BL_14 BL_16 BL_18 BL_20 BL_22
+  BL_24 BL_26 BL_28 BL_30 BL_1 BL_3 BL_5 BL_7 BL_9 BL_11 BL_13 BL_15 BL_17
+  BL_19 BL_21 BL_23 BL_25 BL_27 BL_29 WL_26 WP_26 RA1SHBIT_MUX_0
XI0_5 BL BL_0 BL_1 BL_3 BL_5 BL_7 BL_9 BL_11 BL_13 BL_15 BL_17 BL_19 BL_21
+  BL_23 BL_25 BL_27 BL_29 BL_2 BL_4 BL_6 BL_8 BL_10 BL_12 BL_14 BL_16 BL_18
+  BL_20 BL_22 BL_24 BL_26 BL_28 BL_30 WL_25 WP_25 RA1SHBIT_MUX_1
XI0_6 BL_0 BL BL_2 BL_4 BL_6 BL_8 BL_10 BL_12 BL_14 BL_16 BL_18 BL_20 BL_22
+  BL_24 BL_26 BL_28 BL_30 BL_1 BL_3 BL_5 BL_7 BL_9 BL_11 BL_13 BL_15 BL_17
+  BL_19 BL_21 BL_23 BL_25 BL_27 BL_29 WL_24 WP_24 RA1SHBIT_MUX_0
XI0_7 BL BL_0 BL_1 BL_3 BL_5 BL_7 BL_9 BL_11 BL_13 BL_15 BL_17 BL_19 BL_21
+  BL_23 BL_25 BL_27 BL_29 BL_2 BL_4 BL_6 BL_8 BL_10 BL_12 BL_14 BL_16 BL_18
+  BL_20 BL_22 BL_24 BL_26 BL_28 BL_30 WL_23 WP_23 RA1SHBIT_MUX_1
XI0_8 BL_0 BL BL_2 BL_4 BL_6 BL_8 BL_10 BL_12 BL_14 BL_16 BL_18 BL_20 BL_22
+  BL_24 BL_26 BL_28 BL_30 BL_1 BL_3 BL_5 BL_7 BL_9 BL_11 BL_13 BL_15 BL_17
+  BL_19 BL_21 BL_23 BL_25 BL_27 BL_29 WL_22 WP_22 RA1SHBIT_MUX_0
XI0_9 BL BL_0 BL_1 BL_3 BL_5 BL_7 BL_9 BL_11 BL_13 BL_15 BL_17 BL_19 BL_21
+  BL_23 BL_25 BL_27 BL_29 BL_2 BL_4 BL_6 BL_8 BL_10 BL_12 BL_14 BL_16 BL_18
+  BL_20 BL_22 BL_24 BL_26 BL_28 BL_30 WL_21 WP_21 RA1SHBIT_MUX_1
.ENDS RA1SHBIT_COL
****
.SUBCKT RA1SHMXCOL_ODD_LEFT A0 A0_ BL BL_ BL_0 BL_1 BL_2 BL_3 BL_4 BL_5 BL_6
+  BL_7 BL_8 BL_9 BL_10 BL_11 BL_12 BL_13 BL_14 BL__0 BL__1 BL__2 BL__3 BL__4
+  BL__5 BL__6 BL__7 BL__8 BL__9 BL__10 BL__11 BL__12 BL__13 BL__14 D GTP
+  GTP_0 GTP_1 OE_ Q QI STUBDR STUBDR_ STUBDR_0 STUBDR__0 STUBDW STUBDW_
+  STUBDW_0 STUBDW__0 WE WL WL_0 WL_1 WL_2 WL_3 WL_4 WL_5 WL_6 WL_7 WL_8 WL_9
+  WL_10 WL_11 WL_12 WL_13 WL_14 WL_15 WL_16 WL_17 WL_18 WL_19 WL_20 WL_21
+  WL_22 WL_23 WL_24 WL_25 WL_26 WL_27 WL_28 WL_29 WL_30 WP WP_0 WP_1 WP_2
+  WP_3 WP_4 WP_5 WP_6 WP_7 WP_8 WP_9 WP_10 WP_11 WP_12 WP_13 WP_14 WP_15
+  WP_16 WP_17 WP_18 WP_19 WP_20 WP_21 WP_22 WP_23 WP_24 WP_25 WP_26 WP_27
+  WP_28 WP_29 WP_30 YP0_0 YP0_1 YP0_2 YP0_3 YP1_0 YP1_1 YP1_2 YP1_3
** RA1SHMXCOL_ODD_LEFT: 3520 flat devices **
XI0_0 OE_ GTP_1 WE RA1SHFLIO
XI0_1 GTP_0 RA1SHFLSA
XI0_2 A0 A0_ BL BL_ BL__2 BL_3 BL__6 BL_7 BL__10 BL_11 BL__14 BL_2 BL__3 BL_6
+  BL__7 BL_10 BL__11 BL_14 BL__0 BL_0 BL_1 BL__4 BL_5 BL__8 BL_9 BL__12 BL_13
+  BL__1 BL_4 BL__5 BL_8 BL__9 BL_12 BL__13 VSS STUBDR_ STUBDR VSS VSS VSS VSS
+  VSS VSS STUBDW_ VSS VSS VSS VSS VSS GTP STUBDR_0 STUBDR__0 STUBDW STUBDW_0
+  STUBDW__0 YP0_0 YP0_1 YP0_2 YP0_3 YP1_0 YP1_1 YP1_2 YP1_3 RA1SHMUX_CD_ODD
XI0_3 BL BL_ BL_0 BL__0 BL_1 BL__1 BL_2 BL__2 BL_3 BL__3 BL_4 BL__4 BL_5 BL__5
+  BL_6 BL__6 BL_7 BL__7 BL_8 BL__8 BL_9 BL__9 BL_10 BL__10 BL_11 BL__11 BL_12
+  BL__12 BL_13 BL__13 BL_14 BL__14 WL WL_0 WL_1 WL_2 WL_3 WL_4 WL_5 WL_6 WL_7
+  WL_8 WL_9 WL_10 WL_11 WL_12 WL_13 WL_14 WL_15 WL_16 WL_17 WL_18 WL_19 WL_20
+  WL_21 WL_22 WL_23 WL_24 WL_25 WL_26 WL_27 WL_28 WL_29 WL_30 WP WP_0 WP_1
+  WP_2 WP_3 WP_4 WP_5 WP_6 WP_7 WP_8 WP_9 WP_10 WP_11 WP_12 WP_13 WP_14 WP_15
+  WP_16 WP_17 WP_18 WP_19 WP_20 WP_21 WP_22 WP_23 WP_24 WP_25 WP_26 WP_27
+  WP_28 WP_29 WP_30 RA1SHBIT_COL
XI1_0 D DI_ DPN DPU STUBDW STUBDW_ GTP_1 IO IO_1 OE_ Q QI SP WE RA1SHIOX
XI1_1 DPN DPU STUBDR STUBDR_ STUBDW STUBDW_ GTP_0 SP RA1SHSA8
.ENDS RA1SHMXCOL_ODD_LEFT
****
.SUBCKT RA1SHCOLS_1_LEFT A0 A0_ BL BL_ BL_0 BL_1 BL_2 BL_3 BL_4 BL_5 BL_6 BL_7
+  BL_8 BL_9 BL_10 BL_11 BL_12 BL_13 BL_14 BL__0 BL__1 BL__2 BL__3 BL__4 BL__5
+  BL__6 BL__7 BL__8 BL__9 BL__10 BL__11 BL__12 BL__13 BL__14 D DR DR_ DW DW_
+  GTP GTP_0 GTP_1 OE_ Q QI STUBDR STUBDR_ STUBDW STUBDW_ WE WL WL_0 WL_1 WL_2
+  WL_3 WL_4 WL_5 WL_6 WL_7 WL_8 WL_9 WL_10 WL_11 WL_12 WL_13 WL_14 WL_15
+  WL_16 WL_17 WL_18 WL_19 WL_20 WL_21 WL_22 WL_23 WL_24 WL_25 WL_26 WL_27
+  WL_28 WL_29 WL_30 YP0_0 YP0_1 YP0_2 YP0_3 YP1_0 YP1_1 YP1_2 YP1_3
** RA1SHCOLS_1_LEFT: 3520 flat devices **
XI0_0 A0 A0_ BL BL_ BL_0 BL_1 BL_2 BL_3 BL_4 BL_5 BL_6 BL_7 BL_8 BL_9 BL_10
+  BL_11 BL_12 BL_13 BL_14 BL__0 BL__1 BL__2 BL__3 BL__4 BL__5 BL__6 BL__7
+  BL__8 BL__9 BL__10 BL__11 BL__12 BL__13 BL__14 D GTP GTP_0 GTP_1 OE_ Q QI
+  DR DR_ STUBDR STUBDR_ DW DW_ STUBDW STUBDW_ WE WL WL_0 WL_1 WL_2 WL_3 WL_4
+  WL_5 WL_6 WL_7 WL_8 WL_9 WL_10 WL_11 WL_12 WL_13 WL_14 WL_15 WL_16 WL_17
+  WL_18 WL_19 WL_20 WL_21 WL_22 WL_23 WL_24 WL_25 WL_26 WL_27 WL_28 WL_29
+  WL_30 WL WL_0 WL_1 WL_2 WL_3 WL_4 WL_5 WL_6 WL_7 WL_8 WL_9 WL_10 WL_11
+  WL_12 WL_13 WL_14 WL_15 WL_16 WL_17 WL_18 WL_19 WL_20 WL_21 WL_22 WL_23
+  WL_24 WL_25 WL_26 WL_27 WL_28 WL_29 WL_30 YP0_0 YP0_1 YP0_2 YP0_3 YP1_0
+  YP1_1 YP1_2 YP1_3 RA1SHMXCOL_ODD_LEFT
.ENDS RA1SHCOLS_1_LEFT
****
.SUBCKT RA1SHCOLS_NS_1_LEFT A0 A0_ BL BL_ BL_0 BL_1 BL_2 BL_3 BL_4 BL_5 BL_6
+  BL_7 BL_8 BL_9 BL_10 BL_11 BL_12 BL_13 BL_14 BL__0 BL__1 BL__2 BL__3 BL__4
+  BL__5 BL__6 BL__7 BL__8 BL__9 BL__10 BL__11 BL__12 BL__13 BL__14 D GTP
+  GTP_0 GTP_1 OE_ Q QI STUBDR STUBDR_ STUBDR_0 STUBDR__0 STUBDW STUBDW_
+  STUBDW_0 STUBDW__0 WE WL WL_0 WL_1 WL_2 WL_3 WL_4 WL_5 WL_6 WL_7 WL_8 WL_9
+  WL_10 WL_11 WL_12 WL_13 WL_14 WL_15 WL_16 WL_17 WL_18 WL_19 WL_20 WL_21
+  WL_22 WL_23 WL_24 WL_25 WL_26 WL_27 WL_28 WL_29 WL_30 WP WP_0 WP_1 WP_2
+  WP_3 WP_4 WP_5 WP_6 WP_7 WP_8 WP_9 WP_10 WP_11 WP_12 WP_13 WP_14 WP_15
+  WP_16 WP_17 WP_18 WP_19 WP_20 WP_21 WP_22 WP_23 WP_24 WP_25 WP_26 WP_27
+  WP_28 WP_29 WP_30 YP0_0 YP0_1 YP0_2 YP0_3 YP1_0 YP1_1 YP1_2 YP1_3
** RA1SHCOLS_NS_1_LEFT: 3520 flat devices **
XI0_0 A0 A0_ BL BL_ BL_0 BL_1 BL_2 BL_3 BL_4 BL_5 BL_6 BL_7 BL_8 BL_9 BL_10
+  BL_11 BL_12 BL_13 BL_14 BL__0 BL__1 BL__2 BL__3 BL__4 BL__5 BL__6 BL__7
+  BL__8 BL__9 BL__10 BL__11 BL__12 BL__13 BL__14 D GTP GTP_0 GTP_1 OE_ Q QI
+  STUBDR STUBDR_ STUBDR_0 STUBDR__0 STUBDW STUBDW_ STUBDW_0 STUBDW__0 WE WL
+  WL_0 WL_1 WL_2 WL_3 WL_4 WL_5 WL_6 WL_7 WL_8 WL_9 WL_10 WL_11 WL_12 WL_13
+  WL_14 WL_15 WL_16 WL_17 WL_18 WL_19 WL_20 WL_21 WL_22 WL_23 WL_24 WL_25
+  WL_26 WL_27 WL_28 WL_29 WL_30 WP WP_0 WP_1 WP_2 WP_3 WP_4 WP_5 WP_6 WP_7
+  WP_8 WP_9 WP_10 WP_11 WP_12 WP_13 WP_14 WP_15 WP_16 WP_17 WP_18 WP_19 WP_20
+  WP_21 WP_22 WP_23 WP_24 WP_25 WP_26 WP_27 WP_28 WP_29 WP_30 YP0_0 YP0_1
+  YP0_2 YP0_3 YP1_0 YP1_1 YP1_2 YP1_3 RA1SHMXCOL_ODD_LEFT
.ENDS RA1SHCOLS_NS_1_LEFT
****
.SUBCKT RA1SHWING_6_LEFT A0 A0_ BL BL_ BL_0 BL_1 BL_2 BL_3 BL_4 BL_5 BL_6 BL_7
+  BL_8 BL_9 BL_10 BL_11 BL_12 BL_13 BL_14 BL_15 BL_16 BL_17 BL_18 BL_19 BL_20
+  BL_21 BL_22 BL_23 BL_24 BL_25 BL_26 BL_27 BL_28 BL_29 BL_30 BL_31 BL_32
+  BL_33 BL_34 BL_35 BL_36 BL_37 BL_38 BL_39 BL_40 BL_41 BL_42 BL_43 BL_44
+  BL_45 BL_46 BL_47 BL_48 BL_49 BL_50 BL_51 BL_52 BL_53 BL_54 BL_55 BL_56
+  BL_57 BL_58 BL_59 BL_60 BL_61 BL_62 BL_63 BL_64 BL_65 BL_66 BL_67 BL_68
+  BL_69 BL_70 BL_71 BL_72 BL_73 BL_74 BL_75 BL_76 BL_77 BL_78 BL_79 BL_80
+  BL_81 BL_82 BL_83 BL_84 BL_85 BL_86 BL_87 BL_88 BL_89 BL_90 BL_91 BL_92
+  BL_93 BL_94 BL__0 BL__1 BL__2 BL__3 BL__4 BL__5 BL__6 BL__7 BL__8 BL__9
+  BL__10 BL__11 BL__12 BL__13 BL__14 BL__15 BL__16 BL__17 BL__18 BL__19
+  BL__20 BL__21 BL__22 BL__23 BL__24 BL__25 BL__26 BL__27 BL__28 BL__29
+  BL__30 BL__31 BL__32 BL__33 BL__34 BL__35 BL__36 BL__37 BL__38 BL__39
+  BL__40 BL__41 BL__42 BL__43 BL__44 BL__45 BL__46 BL__47 BL__48 BL__49
+  BL__50 BL__51 BL__52 BL__53 BL__54 BL__55 BL__56 BL__57 BL__58 BL__59
+  BL__60 BL__61 BL__62 BL__63 BL__64 BL__65 BL__66 BL__67 BL__68 BL__69
+  BL__70 BL__71 BL__72 BL__73 BL__74 BL__75 BL__76 BL__77 BL__78 BL__79
+  BL__80 BL__81 BL__82 BL__83 BL__84 BL__85 BL__86 BL__87 BL__88 BL__89
+  BL__90 BL__91 BL__92 BL__93 BL__94 D D_0 D_1 D_2 D_3 D_4 GTP GTP_0 GTP_1
+  OE_ Q QI QI_0 QI_1 QI_2 QI_3 QI_4 Q_0 Q_1 Q_2 Q_3 Q_4 STUBDR STUBDR_
+  STUBDR_0 STUBDR__0 STUBDW STUBDW_ STUBDW_0 STUBDW__0 WE WL WL_0 WL_1 WL_2
+  WL_3 WL_4 WL_5 WL_6 WL_7 WL_8 WL_9 WL_10 WL_11 WL_12 WL_13 WL_14 WL_15
+  WL_16 WL_17 WL_18 WL_19 WL_20 WL_21 WL_22 WL_23 WL_24 WL_25 WL_26 WL_27
+  WL_28 WL_29 WL_30 YP0_0 YP0_1 YP0_2 YP0_3 YP1_0 YP1_1 YP1_2 YP1_3
** RA1SHWING_6_LEFT: 21120 flat devices **
XI0_0 A0 A0_ BL_79 BL__79 BL_80 BL_81 BL_82 BL_83 BL_84 BL_85 BL_86 BL_87
+  BL_88 BL_89 BL_90 BL_91 BL_92 BL_93 BL_94 BL__80 BL__81 BL__82 BL__83
+  BL__84 BL__85 BL__86 BL__87 BL__88 BL__89 BL__90 BL__91 BL__92 BL__93
+  BL__94 D_4 DR DR_ DW DW_ GTP GTP_0 GTP_1 OE_ Q_4 QI_4 STUBDR_0 STUBDR__0
+  STUBDW_0 STUBDW__0 WE WL WL_0 WL_1 WL_2 WL_3 WL_4 WL_5 WL_6 WL_7 WL_8 WL_9
+  WL_10 WL_11 WL_12 WL_13 WL_14 WL_15 WL_16 WL_17 WL_18 WL_19 WL_20 WL_21
+  WL_22 WL_23 WL_24 WL_25 WL_26 WL_27 WL_28 WL_29 WL_30 YP0_0 YP0_1 YP0_2
+  YP0_3 YP1_0 YP1_1 YP1_2 YP1_3 RA1SHCOLS_1_LEFT
XI1_0 A0 A0_ BL_63 BL__63 BL_64 BL_65 BL_66 BL_67 BL_68 BL_69 BL_70 BL_71
+  BL_72 BL_73 BL_74 BL_75 BL_76 BL_77 BL_78 BL__64 BL__65 BL__66 BL__67
+  BL__68 BL__69 BL__70 BL__71 BL__72 BL__73 BL__74 BL__75 BL__76 BL__77
+  BL__78 D_3 DR_6 DR__4 DW_8 DW__10 GTP GTP_0 GTP_1 OE_ Q_3 QI_3 DR DR_ DW
+  DW_ WE WL WL_0 WL_1 WL_2 WL_3 WL_4 WL_5 WL_6 WL_7 WL_8 WL_9 WL_10 WL_11
+  WL_12 WL_13 WL_14 WL_15 WL_16 WL_17 WL_18 WL_19 WL_20 WL_21 WL_22 WL_23
+  WL_24 WL_25 WL_26 WL_27 WL_28 WL_29 WL_30 YP0_0 YP0_1 YP0_2 YP0_3 YP1_0
+  YP1_1 YP1_2 YP1_3 RA1SHCOLS_1_LEFT
XI2_0 A0 A0_ BL_47 BL__47 BL_48 BL_49 BL_50 BL_51 BL_52 BL_53 BL_54 BL_55
+  BL_56 BL_57 BL_58 BL_59 BL_60 BL_61 BL_62 BL__48 BL__49 BL__50 BL__51
+  BL__52 BL__53 BL__54 BL__55 BL__56 BL__57 BL__58 BL__59 BL__60 BL__61
+  BL__62 D_2 DR_14 DR__12 DW_16 DW__18 GTP GTP_0 GTP_1 OE_ Q_2 QI_2 DR_6
+  DR__4 DW_8 DW__10 WE WL WL_0 WL_1 WL_2 WL_3 WL_4 WL_5 WL_6 WL_7 WL_8 WL_9
+  WL_10 WL_11 WL_12 WL_13 WL_14 WL_15 WL_16 WL_17 WL_18 WL_19 WL_20 WL_21
+  WL_22 WL_23 WL_24 WL_25 WL_26 WL_27 WL_28 WL_29 WL_30 YP0_0 YP0_1 YP0_2
+  YP0_3 YP1_0 YP1_1 YP1_2 YP1_3 RA1SHCOLS_1_LEFT
XI3_0 A0 A0_ BL_31 BL__31 BL_32 BL_33 BL_34 BL_35 BL_36 BL_37 BL_38 BL_39
+  BL_40 BL_41 BL_42 BL_43 BL_44 BL_45 BL_46 BL__32 BL__33 BL__34 BL__35
+  BL__36 BL__37 BL__38 BL__39 BL__40 BL__41 BL__42 BL__43 BL__44 BL__45
+  BL__46 D_1 DR_22 DR__20 DW_24 DW__26 GTP GTP_0 GTP_1 OE_ Q_1 QI_1 DR_14
+  DR__12 DW_16 DW__18 WE WL WL_0 WL_1 WL_2 WL_3 WL_4 WL_5 WL_6 WL_7 WL_8 WL_9
+  WL_10 WL_11 WL_12 WL_13 WL_14 WL_15 WL_16 WL_17 WL_18 WL_19 WL_20 WL_21
+  WL_22 WL_23 WL_24 WL_25 WL_26 WL_27 WL_28 WL_29 WL_30 YP0_0 YP0_1 YP0_2
+  YP0_3 YP1_0 YP1_1 YP1_2 YP1_3 RA1SHCOLS_1_LEFT
XI4_0 A0 A0_ BL_15 BL__15 BL_16 BL_17 BL_18 BL_19 BL_20 BL_21 BL_22 BL_23
+  BL_24 BL_25 BL_26 BL_27 BL_28 BL_29 BL_30 BL__16 BL__17 BL__18 BL__19
+  BL__20 BL__21 BL__22 BL__23 BL__24 BL__25 BL__26 BL__27 BL__28 BL__29
+  BL__30 D_0 DR_30 DR__28 DW_32 DW__34 GTP GTP_0 GTP_1 OE_ Q_0 QI_0 DR_22